*Heading
** Job name: hashin_abaqus Model name: hashin_abaqus
** Generated by: Abaqus/CAE 2026.HF2
*Preprint, echo=NO, model=NO, history=NO, contact=NO
**
** PARTS
**
*Part, name=Part-1
*Node
      1,           0.,           0.,           0.
      2,           1.,           0.,           0.
      3,           0.,           1.,           0.
      4,           1.,           1.,           0.
*Element, type=S4R
1, 1, 2, 4, 3
*Orientation, name=Ori-1
1., 0., 0., 0., 1., 0.
3, 0.
** Region: (CompositeLayup-1-1: Generated From Layup)
*Elset, elset=CompositeLayup-1-1
 1,
** Section: CompositeLayup-1-1
*Shell Section, elset=CompositeLayup-1-1, composite, orientation=Ori-1, layup=CompositeLayup-1
0.15, 3, hard, -5., b
0.95, 3, soft, 15., m
0.15, 3, hard, 20., t
*End Part
**  
**
** ASSEMBLY
**
*Assembly, name=Assembly
**  
*Instance, name=Part-1-1, part=Part-1
*End Instance
**  
*Elset, elset=_surf_nxx_E2, internal, instance=Part-1-1
 1,
*Elset, elset=_surf_nxx_E4, internal, instance=Part-1-1
 1,
*Surface, type=ELEMENT, name=surf_nxx
_surf_nxx_E2, E2
_surf_nxx_E4, E4
*Elset, elset=_surf_nyy_E1, internal, instance=Part-1-1
 1,
*Elset, elset=_surf_nyy_E3, internal, instance=Part-1-1
 1,
*Surface, type=ELEMENT, name=surf_nyy
_surf_nyy_E1, E1
_surf_nyy_E3, E3
*End Assembly
** 
** MATERIALS
** 
*Material, name=hard
*Damage Initiation, criterion=HASHIN, alpha=0.2
400.,1000., 400.,1000., 350., 350.
*Elastic, type=LAMINA
200000.,70000.,   0.3, 5000., 5000., 5000.
*Material, name=soft
*Damage Initiation, criterion=HASHIN, alpha=0.2
25.,25.,25.,25., 5., 5.
*Elastic, type=LAMINA
40000.,40000.,  0.49,  100.,  100.,  100.
** ----------------------------------------------------------------
** 
** STEP: Step-1
** 
*Step, name=Step-1, nlgeom=NO
*Static
1., 1., 1e-05, 1.
** 
** LOADS
** 
** Name: nxx   Type: Shell edge load
*Dsload
surf_nxx, EDNOR, -100.
** Name: nyy   Type: Shell edge load
*Dsload
surf_nyy, EDNOR, 30.
** 
** OUTPUT REQUESTS
** 
*Restart, write, frequency=0
** 
** FIELD OUTPUT: F-Output-1
** 
*Output, field, frequency=99999
*Element Output, elset=Part-1-1.CompositeLayup-1-1, directions=YES
3, 6, 9
HSNFCCRT, HSNFTCRT, HSNMCCRT, HSNMTCRT
*Output, history, frequency=0
*End Step
