*Heading
** Job name: joyce_abaqus Model name: joyce_abaqus
** Generated by: Abaqus/CAE 2023.HF2
*Preprint, echo=NO, model=NO, history=NO, contact=NO
**
** PARTS
**
*Part, name=Part-1
*Node
      1,           0.,           0.,           0.
      2,           1.,           0.,           0.
      3,           0.,           1.,           0.
      4,           1.,           1.,           0.
*Element, type=S4R5
1, 1, 2, 4, 3
*Orientation, name=Ori-1
1., 0., 0., 0., 1., 0.
3, 0.
** Region: (CompositeLayup-1-1: Generated From Layup)
*Elset, elset=CompositeLayup-1-1
 1,
** Section: CompositeLayup-1-1
*Shell Section, elset=CompositeLayup-1-1, composite, orientation=Ori-1, layup=CompositeLayup-1
0.1, 3, Material-1, 0., Ply-1
0.2, 3, Material-2, 45., Ply-2
0.1, 3, Material-1, 90., Ply-3
*End Part
**  
**
** ASSEMBLY
**
*Assembly, name=Assembly
**  
*Instance, name=Part-1-1, part=Part-1
*End Instance
**  
*Node
      1,           1.,          0.5,           0.
*Nset, nset=Set-Left, instance=Part-1-1
 1, 3
*Elset, elset=Set-Left, instance=Part-1-1
 1,
*Elset, elset=_Surf-Left_E4, internal, instance=Part-1-1
 1,
*Surface, type=ELEMENT, name=Surf-Left
_Surf-Left_E4, E4
*Elset, elset=_Surf-Right_E2, internal, instance=Part-1-1
 1,
*Surface, type=ELEMENT, name=Surf-Right
_Surf-Right_E2, E2
*End Assembly
** 
** MATERIALS
** 
*Material, name=Material-1
*Damage Initiation, criterion=HASHIN, alpha=0.1
400.,400.,200.,200.,150.,150.
*Elastic, type=LAMINA
200000.,70000.,   0.3, 5000., 5000., 5000.
*Fail Strain
 0.02, -0.02,  0.01, -0.01, 0.015
*Fail Stress
400.,-400., 200.,-200., 150.,  0.5,   0.
*Material, name=Material-2
*Damage Initiation, criterion=HASHIN, alpha=0.1
200.,200.,100.,100., 75., 75.
*Elastic, type=LAMINA
100000.,35000.,   0.3, 2500., 2500., 2500.
*Fail Strain
 0.01,  -0.01,  0.005, -0.005, 0.0075
*Fail Stress
200.,-200., 100.,-100.,  75.,  0.5,   0.
** 
** BOUNDARY CONDITIONS
** 
** Name: BC-Fix Type: Displacement/Rotation
*Boundary
Set-Left, 1, 1
Set-Left, 2, 2
Set-Left, 3, 3
Set-Left, 4, 4
Set-Left, 5, 5
Set-Left, 6, 6
** ----------------------------------------------------------------
** 
** STEP: Step-1
** 
*Step, name=Step-1, nlgeom=NO
Uniaxial Tension
*Static
1., 1., 1e-05, 1.
** 
** LOADS
** 
** Name: Load-1   Type: Shell edge load
*Dsload
Surf-Right, EDNOR, -100.
** 
** OUTPUT REQUESTS
** 
*Restart, write, frequency=0
** 
** FIELD OUTPUT: F-Output-1
** 
*Output, field, frequency=99999
*Node Output
RF, U
** 
** FIELD OUTPUT: F-Output-2
** 
*Element Output, elset=Part-1-1.CompositeLayup-1-1, directions=YES
2, 4, 6
CFAILURE, E, HSNFCCRT, HSNFTCRT, HSNMCCRT, HSNMTCRT, S
** 
** HISTORY OUTPUT: H-Output-1
** 
*Output, history, variable=PRESELECT
*End Step
